Version 4.1
SHEET 1 1748 712
WIRE 464 -48 464 -80
WIRE 464 64 464 32
WIRE 464 64 336 64
WIRE 896 64 464 64
WIRE 1024 64 896 64
WIRE 336 80 336 64
WIRE 1024 80 1024 64
WIRE 464 128 464 64
WIRE 896 128 896 64
WIRE 336 176 336 160
WIRE 400 176 336 176
WIRE 1024 176 1024 160
WIRE 1024 176 960 176
WIRE 336 208 336 176
WIRE 1024 208 1024 176
WIRE 464 240 464 224
WIRE 896 240 896 224
WIRE 464 352 464 320
WIRE 608 352 464 352
WIRE 896 352 896 320
WIRE 896 352 688 352
WIRE 336 368 336 272
WIRE 336 368 -16 368
WIRE 1024 368 1024 272
WIRE 1376 368 1024 368
WIRE -16 400 -16 368
WIRE 336 400 336 368
WIRE 464 400 464 352
WIRE 896 400 896 352
WIRE 1024 400 1024 368
WIRE 1376 400 1376 368
WIRE 464 496 464 480
WIRE 896 496 896 480
WIRE 336 544 336 464
WIRE 400 544 336 544
WIRE 1024 544 1024 464
WIRE 1024 544 960 544
WIRE 336 560 336 544
WIRE 1024 560 1024 544
WIRE -16 656 -16 480
WIRE 336 656 336 640
WIRE 336 656 -16 656
WIRE 464 656 464 592
WIRE 464 656 336 656
WIRE 896 656 896 592
WIRE 896 656 464 656
WIRE 1024 656 1024 640
WIRE 1024 656 896 656
WIRE 1376 656 1376 480
WIRE 1376 656 1024 656
WIRE 464 672 464 656
FLAG 464 -80 0
FLAG 464 672 0
SYMBOL voltage 464 48 R180
WINDOW 0 24 96 Left 2
WINDOW 3 24 16 Left 2
WINDOW 123 0 0 Left 0
WINDOW 39 0 0 Left 0
SYMATTR InstName V1
SYMATTR Value 30
SYMBOL voltage -16 384 R0
WINDOW 123 24 124 Left 2
WINDOW 39 0 0 Left 0
SYMATTR InstName V2
SYMATTR Value SINE(10 8 1000)
SYMATTR Value2 AC 10
SYMBOL npn 400 128 R0
SYMATTR InstName Q1
SYMATTR Value 2TIP41C
SYMBOL pnp 400 592 M180
SYMATTR InstName Q2
SYMATTR Value 2TIP42C
SYMBOL res 448 384 R0
SYMATTR InstName R1
SYMATTR Value 0.1
SYMBOL res 448 224 R0
SYMATTR InstName R2
SYMATTR Value 0.1
SYMBOL res 320 64 R0
SYMATTR InstName R3
SYMATTR Value 680
SYMBOL res 320 544 R0
SYMATTR InstName R4
SYMATTR Value 680
SYMBOL diode 320 208 R0
SYMATTR InstName D1
SYMATTR Value 1N4148
SYMBOL diode 320 400 R0
SYMATTR InstName D2
SYMATTR Value 1N4148
SYMBOL res 704 336 R90
WINDOW 0 0 56 VBottom 2
WINDOW 3 32 56 VTop 2
SYMATTR InstName R5
SYMATTR Value 27
SYMBOL voltage 1376 384 M0
WINDOW 123 24 124 Left 2
WINDOW 39 0 0 Left 0
SYMATTR InstName V5
SYMATTR Value 15
SYMBOL npn 960 128 M0
SYMATTR InstName Q3
SYMATTR Value 2TIP41C
SYMBOL pnp 960 592 R180
SYMATTR InstName Q4
SYMATTR Value 2TIP42C
SYMBOL res 912 384 M0
SYMATTR InstName R6
SYMATTR Value 0.1
SYMBOL res 912 224 M0
SYMATTR InstName R7
SYMATTR Value 680
SYMBOL res 1040 64 M0
SYMATTR InstName R8
SYMATTR Value 680
SYMBOL res 1040 544 M0
SYMATTR InstName R9
SYMATTR Value 680
SYMBOL diode 1040 208 M0
SYMATTR InstName D3
SYMATTR Value 1N4148
SYMBOL diode 1040 400 M0
SYMATTR InstName D4
SYMATTR Value 1N4148
TEXT 416 -184 Left 2 !.lib models.cir
TEXT -240 -192 Left 2 !.tran 0 0.02 0.001 0.00002
TEXT 0 208 Left 2 ;.ac dec 100 100 100000
