Version 4.1
SHEET 1 880 680
WIRE 240 -160 240 -192
WIRE 240 -48 240 -80
WIRE 240 -48 112 -48
WIRE 112 -32 112 -48
WIRE 240 16 240 -48
WIRE 112 64 112 48
WIRE 176 64 112 64
WIRE 112 96 112 64
WIRE 240 128 240 112
WIRE 240 240 240 208
WIRE 384 240 240 240
WIRE 112 256 112 160
WIRE 112 256 -240 256
WIRE -240 288 -240 256
WIRE 112 288 112 256
WIRE 240 288 240 240
WIRE 240 384 240 368
WIRE 112 432 112 352
WIRE 176 432 112 432
WIRE 112 448 112 432
WIRE -240 544 -240 368
WIRE 112 544 112 528
WIRE 112 544 -240 544
WIRE 240 544 240 480
WIRE 240 544 112 544
WIRE 240 560 240 544
FLAG 240 -192 0
FLAG 240 560 0
SYMBOL voltage 240 -64 R180
WINDOW 0 24 96 Left 2
WINDOW 3 24 16 Left 2
WINDOW 123 0 0 Left 0
WINDOW 39 0 0 Left 0
SYMATTR InstName V1
SYMATTR Value 30
SYMBOL voltage -240 272 R0
WINDOW 123 24 124 Left 2
WINDOW 39 0 0 Left 0
SYMATTR Value2 AC 10
SYMATTR InstName V2
SYMATTR Value SINE(15 11 1000)
SYMBOL npn 176 16 R0
SYMATTR InstName Q1
SYMATTR Value 2TIP41C
SYMBOL pnp 176 480 M180
SYMATTR InstName Q2
SYMATTR Value 2TIP42C
SYMBOL res 224 272 R0
SYMATTR InstName R1
SYMATTR Value 0.1
SYMBOL res 224 112 R0
SYMATTR InstName R2
SYMATTR Value 0.1
SYMBOL res 96 -48 R0
SYMATTR InstName R3
SYMATTR Value 1k
SYMBOL res 96 432 R0
SYMATTR InstName R4
SYMATTR Value 1k
SYMBOL diode 96 96 R0
SYMATTR InstName D1
SYMATTR Value 1N4148
SYMBOL diode 96 288 R0
SYMATTR InstName D2
SYMATTR Value 1N4148
SYMBOL res 480 224 R90
WINDOW 0 0 56 VBottom 2
WINDOW 3 32 56 VTop 2
SYMATTR InstName R5
SYMATTR Value 27
TEXT 192 -296 Left 2 !.lib models.cir
TEXT -464 -304 Left 2 !.tran 0 0.02 0.001 0.00002
TEXT -224 96 Left 2 ;.ac dec 100 100 100000
