Version 4.1
SHEET 1 1320 784
WIRE 928 -288 928 -320
WIRE 848 -144 784 -144
WIRE 928 -144 928 -208
WIRE 928 -144 848 -144
WIRE 928 -112 928 -144
WIRE 784 -64 768 -64
WIRE 864 -64 784 -64
WIRE 704 -16 640 -16
WIRE 928 0 928 -16
WIRE 816 32 768 32
WIRE 640 224 640 -16
WIRE 640 224 80 224
WIRE 928 240 928 80
WIRE 1040 240 928 240
WIRE 1264 240 1120 240
WIRE 80 352 80 224
WIRE 928 368 928 240
WIRE 1264 368 1264 240
WIRE 848 416 848 -144
WIRE 848 416 768 416
WIRE 640 464 640 224
WIRE 704 464 640 464
WIRE 928 464 928 448
WIRE 784 512 768 512
WIRE 864 512 784 512
WIRE 80 608 80 432
WIRE 784 608 784 592
WIRE 784 608 80 608
WIRE 816 608 816 32
WIRE 816 608 784 608
WIRE 928 608 928 560
WIRE 928 608 816 608
WIRE 1264 608 1264 448
WIRE 1264 608 928 608
WIRE 928 640 928 608
FLAG 928 -320 0
FLAG 928 640 0
SYMBOL voltage 928 -192 R180
WINDOW 0 24 96 Left 2
WINDOW 3 24 16 Left 2
WINDOW 123 0 0 Left 0
WINDOW 39 0 0 Left 0
SYMATTR InstName V1
SYMATTR Value 30
SYMBOL voltage 80 336 R0
WINDOW 123 24 124 Left 2
WINDOW 39 0 0 Left 0
SYMATTR Value2 AC 10
SYMATTR InstName V2
SYMATTR Value SINE(15 10 1000)
SYMBOL npn 864 -112 R0
SYMATTR InstName Q1
SYMATTR Value 2TIP41C
SYMBOL pnp 864 560 M180
SYMATTR InstName Q2
SYMATTR Value 2TIP42C
SYMBOL res 912 352 R0
SYMATTR InstName R1
SYMATTR Value 0.1
SYMBOL res 912 -16 R0
SYMATTR InstName R2
SYMATTR Value 0.1
SYMBOL diode -64 -352 R0
SYMATTR InstName D2
SYMATTR Value 1N4148
SYMBOL res 1136 224 R90
WINDOW 0 0 56 VBottom 2
WINDOW 3 32 56 VTop 2
SYMATTR InstName R5
SYMATTR Value 27
SYMBOL voltage 1264 352 R0
WINDOW 123 0 0 Left 0
WINDOW 39 0 0 Left 0
SYMATTR InstName V3
SYMATTR Value 15
SYMBOL pnp 704 32 M180
SYMATTR InstName Q3
SYMATTR Value 22N3906
SYMBOL npn 704 416 R0
SYMATTR InstName Q4
SYMATTR Value 22N3904
SYMBOL res 768 -160 R0
SYMATTR InstName R3
SYMATTR Value 2k
SYMBOL res 768 496 R0
SYMATTR InstName R4
SYMATTR Value 2k
TEXT 128 696 Left 2 !.lib models.cir
TEXT 112 664 Left 2 !.tran 0 0.02 0.001 0.000001
TEXT 128 720 Left 2 ;.ac dec 100 100 100000
TEXT 216 768 Left 2 !.temp 138
