Version 4.1
SHEET 1 1132 680
WIRE 96 -112 96 -176
WIRE 224 -112 224 -176
WIRE 512 -64 448 -64
WIRE 656 -64 592 -64
WIRE 96 0 96 -32
WIRE 224 0 224 -32
WIRE 512 16 320 16
WIRE 528 16 512 16
WIRE 512 48 512 16
WIRE 352 64 64 64
WIRE 448 64 448 -64
WIRE 448 64 432 64
WIRE 480 64 448 64
WIRE 656 80 656 -64
WIRE 656 80 544 80
WIRE 736 80 656 80
WIRE 480 96 448 96
WIRE 64 128 64 64
WIRE 512 160 512 112
WIRE 544 160 512 160
WIRE 512 176 512 160
WIRE 320 224 320 16
WIRE 352 224 320 224
WIRE 448 224 448 96
WIRE 448 224 432 224
WIRE 544 224 544 160
WIRE 544 224 528 224
WIRE 64 256 64 208
FLAG 64 256 0
FLAG 224 -176 +15V-VGND
IOPIN 224 -176 BiDir
FLAG 96 -176 +30V
IOPIN 96 -176 BiDir
FLAG 96 0 0
FLAG 224 0 0
FLAG 528 16 +30V
IOPIN 528 16 BiDir
FLAG 736 80 Sine
IOPIN 736 80 BiDir
FLAG 512 176 0
SYMBOL voltage 64 112 R0
WINDOW 123 0 0 Left 0
WINDOW 39 0 0 Left 0
SYMATTR InstName V1
SYMATTR Value SINE(15 5 500)
SYMBOL voltage 96 -128 R0
WINDOW 123 0 0 Left 0
WINDOW 39 0 0 Left 0
SYMATTR InstName V2
SYMATTR Value 30
SYMBOL voltage 224 -128 R0
WINDOW 123 0 0 Left 0
WINDOW 39 0 0 Left 0
SYMATTR InstName V3
SYMATTR Value 15
SYMBOL OpAmps\\opamp2 512 16 R0
SYMATTR InstName U2
SYMATTR Value 2TL081
SYMBOL res 608 -80 R90
WINDOW 0 0 56 VBottom 2
WINDOW 3 32 56 VTop 2
SYMATTR InstName R6
SYMATTR Value 20k
SYMBOL res 448 48 R90
WINDOW 0 0 56 VBottom 2
WINDOW 3 32 56 VTop 2
SYMATTR InstName R1
SYMATTR Value 20k
SYMBOL res 448 208 R90
WINDOW 0 0 56 VBottom 2
WINDOW 3 32 56 VTop 2
SYMATTR InstName R2
SYMATTR Value 200k
SYMBOL res 544 208 R90
WINDOW 0 0 56 VBottom 2
WINDOW 3 32 56 VTop 2
SYMATTR InstName R3
SYMATTR Value 120k
TEXT 392 -456 Left 2 !.lib models.cir
TEXT 384 -408 Left 2 !.tran 0 56m 50m 0.0005m
