Version 4.1
SHEET 1 1472 680
WIRE 1232 -848 576 -848
WIRE 1408 -848 1232 -848
WIRE 992 -816 656 -816
WIRE 1040 -816 992 -816
WIRE 1088 -816 1040 -816
WIRE 1232 -816 1232 -848
WIRE 1040 -800 1040 -816
WIRE 736 -768 624 -768
WIRE 992 -768 992 -816
WIRE 992 -768 960 -768
WIRE 576 -704 576 -848
WIRE 576 -704 528 -704
WIRE 736 -704 576 -704
WIRE 1040 -704 1040 -720
WIRE 1040 -704 960 -704
WIRE 1232 -704 1232 -752
WIRE 1232 -704 1040 -704
WIRE 1264 -704 1232 -704
WIRE 1408 -704 1408 -848
WIRE 688 -640 688 -944
WIRE 736 -640 688 -640
WIRE 992 -640 960 -640
WIRE 656 -576 656 -816
WIRE 736 -576 656 -576
WIRE 1024 -576 960 -576
WIRE 528 -528 528 -704
WIRE 992 -528 992 -640
WIRE 992 -528 528 -528
WIRE 1024 -528 1024 -576
WIRE 528 -512 528 -528
WIRE 528 -416 528 -448
WIRE 624 -416 624 -768
WIRE 624 -416 528 -416
WIRE 1024 -416 1024 -464
WIRE 1024 -416 624 -416
WIRE 624 -384 624 -416
WIRE -528 -256 -768 -256
WIRE -320 -256 -528 -256
WIRE -64 -256 -320 -256
WIRE 64 -256 -64 -256
WIRE -528 -208 -528 -256
WIRE -64 -144 -64 -256
WIRE -320 -128 -320 -256
WIRE -768 -112 -768 -256
WIRE -352 -112 -384 -112
WIRE -128 -96 -288 -96
WIRE -528 -80 -528 -128
WIRE -352 -80 -528 -80
WIRE -528 -32 -528 -80
WIRE -384 -16 -384 -112
WIRE -64 -16 -64 -48
WIRE -64 -16 -384 -16
WIRE 80 -16 -64 -16
WIRE -64 0 -64 -16
WIRE -768 96 -768 -32
WIRE -528 96 -528 48
WIRE -528 96 -768 96
WIRE -416 96 -528 96
WIRE -320 96 -320 -64
WIRE -320 96 -416 96
WIRE -64 96 -64 80
WIRE -64 96 -320 96
WIRE -768 112 -768 96
WIRE -416 224 -416 96
WIRE -416 352 -416 304
WIRE -224 352 -416 352
FLAG -768 112 0
FLAG 64 -256 +30V
IOPIN 64 -256 BiDir
FLAG 624 -384 0
FLAG 80 -16 +15V
IOPIN 80 -16 BiDir
FLAG 1088 -816 +15V
IOPIN 1088 -816 BiDir
FLAG -224 352 +12V
IOPIN -224 352 BiDir
SYMBOL voltage -768 -128 R0
WINDOW 123 0 0 Left 0
WINDOW 39 0 0 Left 0
SYMATTR InstName V1
SYMATTR Value 30
SYMBOL res -544 -224 R0
SYMATTR InstName R1
SYMATTR Value 50k
SYMBOL res -544 -48 R0
SYMATTR InstName R2
SYMATTR Value 50k
SYMBOL npn -128 -144 R0
SYMATTR InstName Q1
SYMATTR Value 22N3904
SYMBOL res -80 -16 R0
SYMATTR InstName R3
SYMATTR Value 100
SYMBOL OpAmps\\opamp2 -320 -160 R0
SYMATTR InstName U1
SYMATTR Value 2TL081
SYMBOL Misc\\NE555 848 -672 R0
SYMATTR InstName U2
SYMBOL cap 512 -512 R0
SYMATTR InstName C1
SYMATTR Value 0.1µ
SYMBOL cap 1008 -528 R0
SYMATTR InstName C2
SYMATTR Value 0.01µ
SYMBOL res 1024 -816 R0
SYMATTR InstName R4
SYMATTR Value 10k
SYMBOL res 1360 -720 R90
WINDOW 0 0 56 VBottom 2
WINDOW 3 32 56 VTop 2
SYMATTR InstName R5
SYMATTR Value 10k
SYMBOL diode 1408 -720 R90
WINDOW 0 0 32 VBottom 2
WINDOW 3 35 -1 VTop 2
SYMATTR InstName D1
SYMATTR Value 2D1N4148
SYMBOL diode 1248 -752 R180
WINDOW 0 24 64 Left 2
WINDOW 3 24 0 Left 2
SYMATTR InstName D2
SYMATTR Value 2D1N4148
SYMBOL voltage -416 320 R180
WINDOW 0 24 96 Left 2
WINDOW 3 24 16 Left 2
WINDOW 123 0 0 Left 0
WINDOW 39 0 0 Left 0
SYMATTR InstName V2
SYMATTR Value 12
TEXT -800 136 Left 2 !.tran 0 0.02 0.01 0.001 uic
TEXT -136 -744 Left 2 !.lib models.cir
