Version 4.1
SHEET 1 1132 680
WIRE 480 -848 272 -848
WIRE 864 -848 480 -848
WIRE 272 -800 272 -848
WIRE 480 -720 480 -848
WIRE 448 -704 416 -704
WIRE 672 -688 512 -688
WIRE 272 -672 272 -720
WIRE 448 -672 272 -672
WIRE 272 -624 272 -672
WIRE 416 -608 416 -704
WIRE 672 -608 672 -688
WIRE 672 -608 416 -608
WIRE 880 -608 672 -608
WIRE 272 -496 272 -544
WIRE 320 -496 272 -496
WIRE 480 -496 480 -656
WIRE 480 -496 320 -496
WIRE 320 -464 320 -496
WIRE 768 -272 704 -272
WIRE 944 -272 848 -272
WIRE 816 -192 800 -192
WIRE 800 -160 800 -192
WIRE 704 -144 704 -272
WIRE 768 -144 704 -144
WIRE 944 -128 944 -272
WIRE 944 -128 832 -128
WIRE 1024 -128 944 -128
WIRE 768 -112 624 -112
WIRE 96 -64 96 -128
WIRE 224 -64 224 -128
WIRE 336 -64 336 -128
WIRE 704 -48 704 -64
WIRE 800 -48 800 -96
WIRE 800 -48 704 -48
WIRE 800 -32 800 -48
WIRE 96 48 96 16
WIRE 224 48 224 16
WIRE 336 48 336 16
WIRE 624 48 624 -112
WIRE 656 48 624 48
WIRE 752 48 720 48
WIRE 624 144 624 48
WIRE 656 144 624 144
WIRE 752 144 752 48
WIRE 752 144 720 144
WIRE 368 240 352 240
WIRE 496 240 448 240
WIRE 512 240 496 240
WIRE 624 240 624 144
WIRE 624 240 592 240
WIRE 656 240 624 240
WIRE 752 240 752 144
WIRE 752 240 736 240
WIRE 576 304 560 304
WIRE 560 320 560 304
WIRE 496 336 496 240
WIRE 528 336 496 336
WIRE 752 352 752 240
WIRE 752 352 592 352
WIRE 528 368 496 368
WIRE 560 400 560 384
WIRE 352 480 352 240
WIRE 384 480 352 480
WIRE 496 480 496 368
WIRE 496 480 464 480
WIRE 512 480 496 480
WIRE 656 480 592 480
WIRE 752 480 752 352
WIRE 752 480 720 480
WIRE 352 576 352 480
WIRE 400 576 352 576
WIRE 496 576 496 480
WIRE 496 576 464 576
FLAG 224 -128 +15V-VGND
IOPIN 224 -128 BiDir
FLAG 96 -128 +30V
IOPIN 96 -128 BiDir
FLAG 96 48 0
FLAG 224 48 0
FLAG 560 400 0
FLAG 576 304 +30V
IOPIN 576 304 BiDir
FLAG 352 576 +6.5V
IOPIN 352 576 BiDir
FLAG 864 -848 +13V
IOPIN 864 -848 BiDir
FLAG 880 -608 +6.5V
IOPIN 880 -608 BiDir
FLAG 320 -464 0
FLAG 336 -128 +13V
IOPIN 336 -128 BiDir
FLAG 336 48 0
FLAG 816 -192 +30V
IOPIN 816 -192 BiDir
FLAG 1024 -128 Sine
IOPIN 1024 -128 BiDir
FLAG 800 -32 0
SYMBOL res 464 224 R90
WINDOW 0 0 56 VBottom 2
WINDOW 3 32 56 VTop 2
SYMATTR InstName R1
SYMATTR Value 100k
SYMBOL res 480 464 R90
WINDOW 0 0 56 VBottom 2
WINDOW 3 32 56 VTop 2
SYMATTR InstName R2
SYMATTR Value 110k
SYMBOL res 608 464 R90
WINDOW 0 0 56 VBottom 2
WINDOW 3 32 56 VTop 2
SYMATTR InstName R3
SYMATTR Value 110k
SYMBOL res 608 224 R90
WINDOW 0 0 56 VBottom 2
WINDOW 3 32 56 VTop 2
SYMATTR InstName R4
SYMATTR Value 168k
SYMBOL OpAmps\\opamp2 560 288 R0
SYMATTR InstName U1
SYMATTR Value 2TL081
SYMBOL res 752 224 R90
WINDOW 0 0 56 VBottom 2
WINDOW 3 32 56 VTop 2
SYMATTR InstName R5
SYMATTR Value 61k
SYMBOL cap 720 464 R90
WINDOW 0 0 32 VBottom 2
WINDOW 3 32 32 VTop 2
SYMATTR InstName C1
SYMATTR Value 1500pF
SYMBOL cap 464 560 R90
WINDOW 0 0 32 VBottom 2
WINDOW 3 32 32 VTop 2
SYMATTR InstName C2
SYMATTR Value 1500pF
SYMBOL diode 656 160 R270
WINDOW 0 32 32 VTop 2
WINDOW 3 -3 41 VBottom 2
SYMATTR InstName D1
SYMATTR Value 2D1N4148
SYMBOL diode 720 32 R90
WINDOW 0 0 32 VBottom 2
WINDOW 3 36 27 VTop 2
SYMATTR InstName D2
SYMATTR Value 2D1N4148
SYMBOL voltage 96 -80 R0
WINDOW 123 0 0 Left 0
WINDOW 39 0 0 Left 0
SYMATTR InstName V1
SYMATTR Value 30
SYMBOL voltage 224 -80 R0
WINDOW 123 0 0 Left 0
WINDOW 39 0 0 Left 0
SYMATTR InstName V2
SYMATTR Value 15
SYMBOL res 256 -816 R0
SYMATTR InstName R6
SYMATTR Value 50k
SYMBOL res 256 -640 R0
SYMATTR InstName R7
SYMATTR Value 50k
SYMBOL OpAmps\\opamp2 480 -752 R0
SYMATTR InstName U2
SYMATTR Value 2TL081
SYMBOL voltage 336 -80 R0
WINDOW 123 0 0 Left 0
WINDOW 39 0 0 Left 0
SYMATTR InstName V3
SYMATTR Value 15
SYMBOL OpAmps\\opamp2 800 -192 R0
SYMATTR InstName U3
SYMATTR Value 2TL081
SYMBOL res 864 -288 R90
WINDOW 0 0 56 VBottom 2
WINDOW 3 32 56 VTop 2
SYMATTR InstName R8
SYMATTR Value 22k
SYMBOL res 688 -160 R0
SYMATTR InstName R9
SYMATTR Value 18k
TEXT 392 -408 Left 2 !.lib models.cir
TEXT -128 504 Left 2 !.tran 0 52.7m 51.1m 0.0005m
