Version 4.1
SHEET 1 1632 1860
WIRE 640 144 432 144
WIRE 432 208 432 144
WIRE 432 208 256 208
WIRE 464 208 432 208
WIRE 256 224 256 208
WIRE 1040 224 992 224
WIRE 1216 224 1120 224
WIRE 640 240 640 224
WIRE 640 240 368 240
WIRE 640 256 640 240
WIRE 432 272 432 208
WIRE 368 288 368 240
WIRE 400 288 368 288
WIRE 1088 288 1072 288
WIRE 576 304 464 304
WIRE 256 320 256 304
WIRE 400 320 256 320
WIRE 1072 320 1072 288
WIRE 256 336 256 320
WIRE 832 336 800 336
WIRE 992 336 992 224
WIRE 992 336 912 336
WIRE 1040 336 992 336
WIRE 1216 352 1216 224
WIRE 1216 352 1104 352
WIRE 1296 352 1216 352
WIRE 1040 368 960 368
WIRE 320 416 256 416
WIRE 432 416 432 336
WIRE 432 416 320 416
WIRE -16 432 -16 384
WIRE -16 432 -240 432
WIRE 160 432 -16 432
WIRE 320 432 320 416
WIRE 960 464 960 368
WIRE 1136 464 960 464
WIRE 1232 464 1216 464
WIRE 960 480 960 464
WIRE 192 496 -160 496
WIRE 832 496 192 496
WIRE -512 512 -512 448
WIRE -384 512 -384 448
WIRE 800 560 800 336
WIRE 800 560 368 560
WIRE 1072 560 1072 384
WIRE 1072 560 960 560
WIRE -96 576 -128 576
WIRE 160 576 160 432
WIRE 160 576 128 576
WIRE 1072 576 1072 560
WIRE -512 624 -512 592
WIRE -384 624 -384 592
WIRE -160 640 -160 496
WIRE -96 640 -160 640
WIRE 640 672 640 352
WIRE 640 672 496 672
WIRE 688 672 640 672
WIRE 1120 672 1056 672
WIRE 1296 672 1200 672
WIRE -96 704 -160 704
WIRE 192 704 192 496
WIRE 192 704 128 704
WIRE 496 736 496 672
WIRE 688 736 688 672
WIRE 1152 752 1136 752
WIRE -240 768 -240 432
WIRE -96 768 -240 768
WIRE 160 768 128 768
WIRE 1136 784 1136 752
WIRE 1056 800 1056 672
WIRE 1104 800 1056 800
WIRE 1296 816 1296 672
WIRE 1296 816 1168 816
WIRE 1312 816 1296 816
WIRE 1392 816 1376 816
WIRE 1424 816 1392 816
WIRE -160 832 -160 704
WIRE 368 832 368 560
WIRE 368 832 -160 832
WIRE 496 832 496 800
WIRE 496 832 368 832
WIRE 688 832 688 800
WIRE 832 832 832 496
WIRE 832 832 688 832
WIRE 864 832 832 832
WIRE 1104 832 864 832
WIRE 1392 832 1392 816
WIRE -512 848 -512 784
WIRE 160 864 160 768
WIRE 496 864 496 832
WIRE 688 864 688 832
WIRE 864 880 864 832
WIRE 1056 896 1056 880
WIRE 1136 896 1136 848
WIRE 1136 896 1056 896
WIRE 1136 912 1136 896
WIRE -128 928 -128 576
WIRE 160 928 -128 928
WIRE 1392 928 1392 912
WIRE 1408 928 1392 928
WIRE 160 944 160 928
WIRE -512 960 -512 928
WIRE 864 960 864 944
WIRE 496 1008 496 928
WIRE 592 1008 496 1008
WIRE 688 1008 688 928
WIRE 688 1008 592 1008
WIRE 384 1040 208 1040
WIRE 448 1040 384 1040
WIRE 208 1056 208 1040
WIRE 592 1088 592 1008
WIRE 384 1104 384 1040
WIRE 352 1120 320 1120
WIRE 528 1136 416 1136
WIRE 208 1152 208 1136
WIRE 352 1152 208 1152
WIRE 208 1168 208 1152
WIRE 320 1232 320 1120
WIRE 592 1232 592 1184
WIRE 592 1232 320 1232
WIRE 208 1312 208 1248
WIRE 384 1312 384 1168
WIRE 384 1312 208 1312
WIRE 592 1312 384 1312
WIRE 592 1328 592 1312
FLAG 160 944 0
FLAG -16 384 +13V
IOPIN -16 384 BiDir
FLAG 1088 288 +30V
IOPIN 1088 288 BiDir
FLAG 592 1328 0
FLAG 448 1040 +13V
IOPIN 448 1040 BiDir
FLAG 464 208 +13V
IOPIN 464 208 BiDir
FLAG 320 432 0
FLAG -384 448 +13V
IOPIN -384 448 BiDir
FLAG -512 448 +30V
IOPIN -512 448 BiDir
FLAG -512 624 0
FLAG -384 624 0
FLAG 1296 352 Square
IOPIN 1296 352 BiDir
FLAG 864 960 0
FLAG -512 784 +15V
IOPIN -512 784 BiDir
FLAG -512 960 0
FLAG 1152 752 +30V
IOPIN 1152 752 BiDir
FLAG 1424 816 Triangle
IOPIN 1424 816 BiDir
FLAG 1408 928 +15V
IOPIN 1408 928 BiDir
FLAG 1136 912 0
FLAG 1072 576 0
FLAG 1232 464 +30V
IOPIN 1232 464 BiDir
SYMBOL OpAmps\\opamp2 1072 288 R0
SYMATTR InstName U3
SYMATTR Value 2TL081
SYMBOL diode 480 736 R0
SYMATTR InstName D7
SYMATTR Value 2D1N4148
SYMBOL diode 480 864 R0
SYMATTR InstName D8
SYMATTR Value 2D1N4148
SYMBOL diode 672 864 R0
SYMATTR InstName D9
SYMATTR Value 2D1N4148
SYMBOL diode 672 736 R0
SYMATTR InstName D10
SYMATTR Value 2D1N4148
SYMBOL cap 848 880 R0
SYMATTR InstName C4
SYMATTR Value 10nf
SYMBOL Misc\\NE555 16 672 R0
SYMATTR InstName U4
SYMBOL cap 144 864 R0
SYMATTR InstName C3
SYMATTR Value 1nF
SYMBOL res 192 1040 R0
SYMATTR InstName R8
SYMATTR Value 33k
SYMBOL res 192 1152 R0
SYMATTR InstName R9
SYMATTR Value 10k
SYMBOL OpAmps\\opamp2 384 1072 R0
SYMATTR InstName U6
SYMATTR Value 2TL081
SYMBOL npn 528 1088 R0
SYMATTR InstName Q2
SYMATTR Value 22N3904
SYMBOL res 576 1216 R0
SYMATTR InstName R10
SYMATTR Value 34k
SYMBOL res 240 208 R0
SYMATTR InstName R11
SYMATTR Value 2.8k
SYMBOL res 240 320 R0
SYMATTR InstName R12
SYMATTR Value 10k
SYMBOL OpAmps\\opamp2 432 240 R0
SYMATTR InstName U7
SYMATTR Value 2TL081
SYMBOL pnp 576 352 M180
SYMATTR InstName 22N3906
SYMBOL res 624 128 R0
SYMATTR InstName R13
SYMATTR Value 34k
SYMBOL voltage -512 496 R0
WINDOW 123 0 0 Left 0
WINDOW 39 0 0 Left 0
SYMATTR InstName V1
SYMATTR Value 30
SYMBOL voltage -384 496 R0
WINDOW 123 0 0 Left 0
WINDOW 39 0 0 Left 0
SYMATTR InstName V2
SYMATTR Value 13
SYMBOL voltage -512 832 R0
WINDOW 123 0 0 Left 0
WINDOW 39 0 0 Left 0
SYMATTR InstName V3
SYMATTR Value 15
SYMBOL OpAmps\\opamp2 1136 752 R0
SYMATTR InstName U1
SYMATTR Value 2TL081
SYMBOL cap 1376 800 R90
WINDOW 0 0 32 VBottom 2
WINDOW 3 32 32 VTop 2
SYMATTR InstName C2
SYMATTR Value 1µ
SYMBOL res 1376 816 R0
SYMATTR InstName R1
SYMATTR Value 100k
SYMBOL res 1040 784 R0
WINDOW 0 -31 27 Left 2
WINDOW 3 -22 76 Left 2
SYMATTR InstName R3
SYMATTR Value 18k
SYMBOL res 1216 656 R90
WINDOW 0 0 56 VBottom 2
WINDOW 3 32 56 VTop 2
SYMATTR InstName R4
SYMATTR Value 23k
SYMBOL res 1136 208 R90
WINDOW 0 0 56 VBottom 2
WINDOW 3 32 56 VTop 2
SYMATTR InstName R2
SYMATTR Value 100k
SYMBOL res 928 320 R90
WINDOW 0 0 56 VBottom 2
WINDOW 3 32 56 VTop 2
SYMATTR InstName R5
SYMATTR Value 100k
SYMBOL res 944 464 R0
SYMATTR InstName R7
SYMATTR Value 6.8k
SYMBOL res 1232 448 R90
WINDOW 0 0 56 VBottom 2
WINDOW 3 32 56 VTop 2
SYMATTR InstName R6
SYMATTR Value 12k
TEXT -488 264 Left 2 !.lib models.cir
TEXT -568 216 Left 2 !.tran 0 0.312 0.31 0.05
