Version 4
SHEET 1 2996 1568
WIRE 1520 -336 1472 -336
WIRE 1632 -336 1600 -336
WIRE 2256 -336 1632 -336
WIRE 1472 -224 1472 -336
WIRE 1488 -224 1472 -224
WIRE 1600 -224 1568 -224
WIRE 1952 -224 1600 -224
WIRE 1680 -176 1568 -176
WIRE 1952 -176 1952 -224
WIRE 1952 -176 1904 -176
WIRE 2080 -176 1952 -176
WIRE 800 -144 672 -144
WIRE 1472 -112 1472 -224
WIRE 1680 -112 1472 -112
WIRE 1632 -48 1632 -336
WIRE 1680 -48 1632 -48
WIRE 1936 -48 1904 -48
WIRE 208 -16 -32 -16
WIRE 416 -16 208 -16
WIRE 672 -16 672 -144
WIRE 672 -16 416 -16
WIRE 1600 16 1600 -224
WIRE 1680 16 1600 16
WIRE 2000 16 1904 16
WIRE 208 32 208 -16
WIRE 1472 64 1472 -112
WIRE 1936 64 1936 -48
WIRE 1936 64 1472 64
WIRE 2000 64 2000 16
WIRE 1472 80 1472 64
WIRE 672 96 672 -16
WIRE 416 112 416 -16
WIRE -32 128 -32 -16
WIRE 384 128 352 128
WIRE 608 144 448 144
WIRE 2000 144 2000 128
WIRE 2000 144 1632 144
WIRE 208 160 208 112
WIRE 384 160 208 160
WIRE 1472 176 1472 144
WIRE 1568 176 1568 -176
WIRE 1568 176 1472 176
WIRE 1632 176 1632 144
WIRE 1632 176 1568 176
WIRE 1664 176 1632 176
WIRE 208 208 208 160
WIRE 352 224 352 128
WIRE 672 224 672 192
WIRE 672 224 352 224
WIRE 800 224 672 224
WIRE 672 240 672 224
WIRE -32 336 -32 208
WIRE 208 336 208 288
WIRE 208 336 -32 336
WIRE 416 336 416 176
WIRE 416 336 208 336
WIRE 672 336 672 320
WIRE 672 336 416 336
WIRE -32 352 -32 336
WIRE 672 480 672 336
WIRE 800 480 672 480
WIRE 2736 592 2640 592
WIRE 2896 592 2816 592
WIRE 2384 688 2224 688
WIRE 2640 704 2640 592
WIRE 2784 704 2640 704
WIRE 2896 704 2896 592
WIRE 2896 704 2848 704
WIRE 2304 736 2304 704
WIRE 2224 752 2224 688
WIRE 2272 752 2224 752
WIRE 2720 752 2720 720
WIRE 2384 768 2384 688
WIRE 2384 768 2336 768
WIRE 2432 768 2384 768
WIRE 2528 768 2496 768
WIRE 2640 768 2640 704
WIRE 2640 768 2608 768
WIRE 2688 768 2640 768
WIRE 2272 784 1424 784
WIRE 2896 784 2896 704
WIRE 2896 784 2752 784
WIRE 2992 784 2896 784
WIRE 2688 800 2656 800
WIRE 2304 832 2304 800
WIRE 2656 832 2656 800
WIRE 2720 832 2720 816
WIRE 2720 832 2656 832
WIRE 2720 848 2720 832
WIRE 1968 864 1312 864
WIRE 2144 864 1968 864
WIRE 1728 896 1392 896
WIRE 1776 896 1728 896
WIRE 1840 896 1776 896
WIRE 1968 896 1968 864
WIRE 1776 912 1776 896
WIRE 1472 944 1360 944
WIRE 1728 944 1728 896
WIRE 1728 944 1696 944
WIRE 1312 1008 1312 864
WIRE 1312 1008 1264 1008
WIRE 1472 1008 1312 1008
WIRE 1776 1008 1776 992
WIRE 1776 1008 1696 1008
WIRE 1968 1008 1968 960
WIRE 1968 1008 1776 1008
WIRE 2000 1008 1968 1008
WIRE 2144 1008 2144 864
WIRE 1424 1072 1424 784
WIRE 1472 1072 1424 1072
WIRE 1728 1072 1696 1072
WIRE 1392 1136 1392 896
WIRE 1472 1136 1392 1136
WIRE 1760 1136 1696 1136
WIRE 1264 1184 1264 1008
WIRE 1728 1184 1728 1072
WIRE 1728 1184 1264 1184
WIRE 1760 1184 1760 1136
WIRE 1264 1200 1264 1184
WIRE 1264 1296 1264 1264
WIRE 1360 1296 1360 944
WIRE 1360 1296 1264 1296
WIRE 1760 1296 1760 1248
WIRE 1760 1296 1360 1296
WIRE 1360 1328 1360 1296
FLAG -32 352 0
FLAG 800 -144 +15V
IOPIN 800 -144 BiDir
FLAG 800 480 -15V
IOPIN 800 480 BiDir
FLAG 800 224 COM
FLAG 1248 -128 +15V
IOPIN 1248 -128 BiDir
FLAG 1664 176 -15V
IOPIN 1664 176 BiDir
FLAG 2080 -176 COM
FLAG 1840 896 COM
FLAG 2304 704 COM
FLAG 2720 720 COM
FLAG 1360 1328 0
FLAG 2720 848 0
FLAG 2304 832 0
SYMBOL voltage -32 112 R0
WINDOW 123 0 0 Left 0
WINDOW 39 0 0 Left 0
SYMATTR InstName V1
SYMATTR Value 30
SYMBOL res 192 16 R0
SYMATTR InstName R1
SYMATTR Value 50k
SYMBOL res 192 192 R0
SYMATTR InstName R2
SYMATTR Value 50k
SYMBOL npn 608 96 R0
SYMATTR InstName Q1
SYMATTR Value 2N3904
SYMBOL res 656 224 R0
SYMATTR InstName R3
SYMATTR Value 100
SYMBOL OpAmps\\opamp2 416 80 R0
SYMATTR InstName U1
SYMATTR Value TL081
SYMBOL Misc\\NE555 1792 -80 R0
SYMATTR InstName U2
SYMBOL cap 1456 80 R0
SYMATTR InstName C1
SYMATTR Value 0.1µ
SYMBOL res 1616 -352 R90
WINDOW 0 0 56 VBottom 2
WINDOW 3 32 56 VTop 2
SYMATTR InstName R4
SYMATTR Value 8k
SYMBOL res 1584 -240 R90
WINDOW 0 0 56 VBottom 2
WINDOW 3 32 56 VTop 2
SYMATTR InstName R5
SYMATTR Value 100k
SYMBOL cap 1984 64 R0
SYMATTR InstName C2
SYMATTR Value 0.01µ
SYMBOL Misc\\NE555 1584 1040 R0
SYMATTR InstName U3
SYMBOL cap 1248 1200 R0
SYMATTR InstName C3
SYMATTR Value 0.1µ
SYMBOL cap 1744 1184 R0
SYMATTR InstName C4
SYMATTR Value 0.01µ
SYMBOL res 1760 896 R0
SYMATTR InstName R6
SYMATTR Value 10k
SYMBOL res 2096 992 R90
WINDOW 0 0 56 VBottom 2
WINDOW 3 32 56 VTop 2
SYMATTR InstName R7
SYMATTR Value 10k
SYMBOL diode 2144 992 R90
WINDOW 0 0 32 VBottom 2
WINDOW 3 32 32 VTop 2
SYMATTR InstName D1
SYMBOL diode 1984 960 R180
WINDOW 0 24 64 Left 2
WINDOW 3 24 0 Left 2
SYMATTR InstName D2
SYMBOL OpAmps\\opamp2 2304 704 R0
SYMATTR InstName U4
SYMATTR Value TL081
SYMBOL OpAmps\\opamp2 2720 720 R0
SYMATTR InstName U5
SYMATTR Value TL081
SYMBOL cap 2848 688 R90
WINDOW 0 0 32 VBottom 2
WINDOW 3 32 32 VTop 2
SYMATTR InstName C5
SYMATTR Value 2.2n
SYMBOL res 2624 752 R90
WINDOW 0 0 56 VBottom 2
WINDOW 3 32 56 VTop 2
SYMATTR InstName 100k
SYMATTR Value 33k
SYMBOL res 2832 576 R90
WINDOW 0 0 56 VBottom 2
WINDOW 3 32 56 VTop 2
SYMATTR InstName R9
SYMATTR Value 820k
SYMBOL cap 2496 752 R90
WINDOW 0 0 32 VBottom 2
WINDOW 3 32 32 VTop 2
SYMATTR InstName C6
SYMATTR Value 33n
TEXT -64 376 Left 2 !.tran 0 0.1 0.01 0.02 uic
TEXT -288 -240 Left 2 !.lib 2N3904.cir
TEXT -280 -208 Left 2 !.lib 2N3906.cir
TEXT -280 -176 Left 2 !.lib TIP41C.cir
TEXT -288 -136 Left 2 !.lib TIP42C.cir
TEXT -288 -104 Left 2 !.lib TL081.cir
RECTANGLE Normal 2288 240 1408 -384 2
