Version 4.1
SHEET 1 880 804
WIRE -736 -496 -976 -496
WIRE -528 -496 -736 -496
WIRE -272 -496 -528 -496
WIRE -144 -496 -272 -496
WIRE -736 -448 -736 -496
WIRE -272 -384 -272 -496
WIRE -528 -368 -528 -496
WIRE -976 -352 -976 -496
WIRE -560 -352 -592 -352
WIRE -336 -336 -496 -336
WIRE -736 -320 -736 -368
WIRE -560 -320 -736 -320
WIRE -736 -272 -736 -320
WIRE -592 -256 -592 -352
WIRE -272 -256 -272 -288
WIRE -272 -256 -592 -256
WIRE -128 -256 -272 -256
WIRE -272 -240 -272 -256
WIRE -976 -144 -976 -272
WIRE -736 -144 -736 -192
WIRE -736 -144 -976 -144
WIRE -528 -144 -528 -304
WIRE -528 -144 -736 -144
WIRE -272 -144 -272 -160
WIRE -272 -144 -528 -144
WIRE -976 -128 -976 -144
WIRE 432 224 -416 224
WIRE 128 320 -528 320
WIRE 304 320 128 320
WIRE -112 352 -448 352
WIRE -64 352 -112 352
WIRE -16 352 -64 352
WIRE 128 352 128 320
WIRE -64 368 -64 352
WIRE -368 400 -480 400
WIRE -112 400 -112 352
WIRE -112 400 -144 400
WIRE -528 464 -528 320
WIRE -528 464 -576 464
WIRE -368 464 -528 464
WIRE -64 464 -64 448
WIRE -64 464 -144 464
WIRE 128 464 128 416
WIRE 128 464 -64 464
WIRE 160 464 128 464
WIRE 304 464 304 320
WIRE -416 528 -416 224
WIRE -368 528 -416 528
WIRE -112 528 -144 528
WIRE -448 592 -448 352
WIRE -368 592 -448 592
WIRE -80 592 -144 592
WIRE -576 640 -576 464
WIRE -112 640 -112 528
WIRE -112 640 -576 640
WIRE -80 640 -80 592
WIRE -576 656 -576 640
WIRE -576 752 -576 720
WIRE -480 752 -480 400
WIRE -480 752 -576 752
WIRE -80 752 -80 704
WIRE -80 752 -480 752
WIRE -480 784 -480 752
FLAG -976 -128 0
FLAG -144 -496 +30V
IOPIN -144 -496 BiDir
FLAG -480 784 0
FLAG -128 -256 +15V
IOPIN -128 -256 BiDir
FLAG -16 352 +15V
IOPIN -16 352 BiDir
SYMBOL voltage -976 -368 R0
WINDOW 123 0 0 Left 0
WINDOW 39 0 0 Left 0
SYMATTR InstName V2
SYMATTR Value 30
SYMBOL res -752 -464 R0
SYMATTR InstName R3
SYMATTR Value 50k
SYMBOL res -752 -288 R0
SYMATTR InstName R4
SYMATTR Value 50k
SYMBOL npn -336 -384 R0
SYMATTR InstName Q1
SYMATTR Value 2N3904
SYMBOL res -288 -256 R0
SYMATTR InstName R5
SYMATTR Value 100
SYMBOL OpAmps\\opamp2 -528 -400 R0
SYMATTR InstName U2
SYMATTR Value TL081
SYMBOL Misc\\NE555 -256 496 R0
SYMATTR InstName U3
SYMBOL cap -592 656 R0
SYMATTR InstName C1
SYMATTR Value 0.1µ
SYMBOL cap -96 640 R0
SYMATTR InstName C2
SYMATTR Value 0.01µ
SYMBOL res -80 352 R0
SYMATTR InstName R1
SYMATTR Value 10k
SYMBOL res 256 448 R90
WINDOW 0 0 56 VBottom 2
WINDOW 3 32 56 VTop 2
SYMATTR InstName R2
SYMATTR Value 10k
SYMBOL diode 304 448 R90
WINDOW 0 0 32 VBottom 2
WINDOW 3 32 32 VTop 2
SYMATTR InstName D1
SYMBOL diode 144 416 R180
WINDOW 0 24 64 Left 2
WINDOW 3 24 0 Left 2
SYMATTR InstName D2
TEXT -1008 -104 Left 2 !.tran 0 0.1 0.01 0.02 uic
