Version 4
SHEET 1 880 680
WIRE 352 -128 304 -128
WIRE 448 -128 432 -128
WIRE 176 -80 176 -112
WIRE 304 -48 304 -128
WIRE 352 -48 304 -48
WIRE 448 -48 448 -128
WIRE 448 -48 416 -48
WIRE 368 0 176 0
WIRE 368 32 368 0
WIRE 192 48 80 48
WIRE 304 48 304 -48
WIRE 304 48 272 48
WIRE 336 48 304 48
WIRE 448 64 448 -48
WIRE 448 64 400 64
WIRE 336 80 320 80
WIRE 80 112 80 48
WIRE 320 144 320 80
WIRE 368 144 368 96
WIRE 368 144 320 144
WIRE 368 160 368 144
WIRE 80 208 80 192
FLAG 80 208 0
FLAG 368 160 0
FLAG 176 -112 0
DATAFLAG 432 64 ""
SYMBOL voltage 80 96 R0
WINDOW 123 24 124 Left 2
WINDOW 39 0 0 Left 0
SYMATTR Value2 AC 10
SYMATTR InstName V1
SYMATTR Value PULSE(0 10 0 0 0 0 0.001)
SYMBOL res 288 32 R90
WINDOW 0 0 56 VBottom 2
WINDOW 3 32 56 VTop 2
SYMATTR InstName R1
SYMATTR Value 33k
SYMBOL res 448 -144 R90
WINDOW 0 -5 61 VBottom 2
WINDOW 3 32 60 VTop 2
SYMATTR InstName R2
SYMATTR Value 6.60E9
SYMBOL cap 416 -64 R90
WINDOW 0 0 32 VBottom 2
WINDOW 3 32 32 VTop 2
SYMATTR InstName C1
SYMATTR Value 0.241p
SYMBOL OpAmps\\opamp2 368 0 R0
SYMATTR InstName U2
SYMATTR Value TL081
SYMBOL voltage 176 16 R180
WINDOW 0 24 96 Left 2
WINDOW 3 24 16 Left 2
WINDOW 123 0 0 Left 0
WINDOW 39 0 0 Left 0
SYMATTR InstName V2
SYMATTR Value 15
TEXT -32 304 Left 2 !.ac dec 100 10 500k
TEXT -152 -168 Left 2 !.lib TL081.cir
